
#======================================================================
# CRYSTAL DATA
#----------------------------------------------------------------------
data_VESTA_phase_1

_chemical_name_common                  'Fe3 O4'
_cell_length_a                         8.396500
_cell_length_b                         8.396500
_cell_length_c                         25.198500
_cell_angle_alpha                      90.000000
_cell_angle_beta                       90.000000
_cell_angle_gamma                      90.000000
_cell_volume                           1776.524619
_space_group_name_H-M_alt              'P 41 21 2'
_space_group_IT_number                 92

loop_
_space_group_symop_operation_xyz
   'x, y, z'
   '-x, -y, z+1/2'
   '-y+1/2, x+1/2, z+1/4'
   'y+1/2, -x+1/2, z+3/4'
   '-x+1/2, y+1/2, -z+1/4'
   'x+1/2, -y+1/2, -z+3/4'
   'y, x, -z'
   '-y, -x, -z+1/2'

loop_
   _atom_site_label
   _atom_site_occupancy
   _atom_site_fract_x
   _atom_site_fract_y
   _atom_site_fract_z
   _atom_site_adp_type
   _atom_site_B_iso_or_equiv
   _atom_site_type_symbol
   Fe1         1.0     0.742000     0.992000     0.039000    Biso  1.000000 Fe
   Fe2         1.0     0.375000     0.625000     0.250000    Biso  1.000000 Fe
   Fe3         1.0     0.625000     0.375000     0.083000    Biso  1.000000 Fe
   Fe4         1.0     0.615000     0.615000     0.000000    Biso  1.000000 Fe
   Fe5         1.0     0.115000     0.885000     0.083000    Biso  1.000000 Fe
   Fe6         1.0     0.365000     0.867000     0.997000    Biso  1.000000 Fe
   Fe7         1.0     0.365000     0.867000     0.330300    Biso  1.000000 Fe
   Fe8         1.0     0.365000     0.867000     0.664000    Biso  1.000000 Fe
   Fe9         1.0     0.742000     0.992000     0.706000    Biso  1.000000 Fe
   Fe10        1.0     0.742000     0.992000     0.372000    Biso  1.000000 Fe
   O1          1.0     0.131000     0.385000     0.171000    Biso  1.000000 O
   O2          1.0     0.131000     0.385000     0.504000    Biso  1.000000 O
   O3          1.0     0.131000     0.385000     0.838000    Biso  1.000000 O
   O4          1.0     0.377000     0.122000     0.000000    Biso  1.000000 O
   O5          1.0     0.377000     0.122000     0.333000    Biso  1.000000 O
   O6          1.0     0.377000     0.122000     0.666000    Biso  1.000000 O
   O7          1.0     0.124000     0.873000     0.001000    Biso  1.000000 O
   O8          1.0     0.124000     0.873000     0.334000    Biso  1.000000 O
   O9          1.0     0.124000     0.873000     0.667000    Biso  1.000000 O
   O10         1.0     0.374000     0.628000     0.001000    Biso  1.000000 O
   O11         1.0     0.374000     0.628000     0.334000    Biso  1.000000 O
   O12         1.0     0.374000     0.628000     0.667000    Biso  1.000000 O
