
#======================================================================
# CRYSTAL DATA
#----------------------------------------------------------------------
data_VESTA_phase_1

_chemical_name_common                  'Fe3 O4'
_cell_length_a                         8.350000
_cell_length_b                         8.350000
_cell_length_c                         8.350000
_cell_angle_alpha                      90.000000
_cell_angle_beta                       90.000000
_cell_angle_gamma                      90.000000
_cell_volume                           582.182955
_space_group_name_H-M_alt              'P 43 3 2'
_space_group_IT_number                 212

loop_
_space_group_symop_operation_xyz
   'x, y, z'
   '-x, -y, z+1/2'
   '-x+1/2, y+1/2, -z+3/4'
   'x+1/2, -y+1/2, -z+1/4'
   'z+5/8, x+3/4, y+5/8'
   'z+1/8, -x+3/4, -y+5/8'
   '-z+3/8, -x+1/4, y+1/8'
   '-z+7/8, x+1/4, -y+1/8'
   'y+1/4, z+3/8, x+3/8'
   '-y+1/4, z+7/8, -x+3/8'
   'y+3/4, -z+1/8, -x+7/8'
   '-y+3/4, -z+5/8, x+7/8'
   'y+1/2, x+1/2, -z'
   '-y+1/2, -x+1/2, -z+1/2'
   'y, -x, z+1/4'
   '-y, x, z+3/4'
   'x+1/4, z+1/8, -y+3/8'
   '-x+1/4, z+5/8, y+3/8'
   '-x+3/4, -z+7/8, -y+7/8'
   'x+3/4, -z+3/8, y+7/8'
   'z+7/8, y+3/4, -x+5/8'
   'z+3/8, -y+3/4, x+5/8'
   '-z+5/8, y+1/4, x+1/8'
   '-z+1/8, -y+1/4, -x+1/8'

loop_
   _atom_site_label
   _atom_site_occupancy
   _atom_site_fract_x
   _atom_site_fract_y
   _atom_site_fract_z
   _atom_site_adp_type
   _atom_site_B_iso_or_equiv
   _atom_site_type_symbol
   Fe1         1.0     0.250000     1.000000     0.625000    Biso  1.000000 Fe
   Fe2         0.3000  0.875000     0.625000     0.250000    Biso  1.000000 Fe
   Fe3         1.0     0.375000     0.375000     0.500000    Biso  1.000000 Fe
   O1          1.0     0.125000     0.875000     0.500000    Biso  1.000000 O
   O2          1.0     0.375000     0.125000     0.000000    Biso  1.000000 O
